SiTX-0044102
     RDKit          3D

 81 88  0  0  1  0  0  0  0  0999 V2000
    9.1050   -0.5330   38.7690 O   0  0  0  0  0  0  0  0  0  0  0  0
    9.6890    0.6180   38.1240 C   0  0  0  0  0  0  0  0  0  0  0  0
    8.2170   -1.3150   38.1590 C   0  0  0  0  0  0  0  0  0  0  0  0
    8.2680   -1.4680   36.8390 N   0  0  0  0  0  0  0  0  0  0  0  0
    7.3710   -2.2510   36.2660 C   0  0  0  0  0  0  0  0  0  0  0  0
    7.5100   -2.3180   34.8790 N   0  0  0  0  0  0  0  0  0  0  0  0
    7.5930   -3.6350   34.1960 C   0  0  0  0  0  0  0  0  0  0  0  0
    8.9080   -3.8920   33.4040 C   0  0  0  0  0  0  0  0  0  0  0  0
   10.1260   -3.8410   34.3300 C   0  0  0  0  0  0  0  0  0  0  0  0
   10.5130   -2.3470   34.3080 C   0  0  0  0  0  0  0  0  0  0  0  0
    9.4930   -1.7260   33.3430 C   0  0  0  0  0  0  0  0  0  0  0  0
    8.2210   -1.2290   34.0920 C   0  0  0  0  0  0  0  0  0  0  0  0
    9.2220   -2.8430   32.4220 N   0  0  0  0  0  0  0  0  0  0  0  0
    6.4100   -2.9470   37.0490 C   0  0  0  0  0  0  0  0  0  0  0  0
    5.4230   -3.9020   36.5870 C   0  0  0  0  0  0  0  0  0  0  0  0
    4.7670   -4.6800   37.5370 N   0  0  0  0  0  0  0  0  0  0  0  0
    4.3440   -6.0520   37.2210 C   0  0  0  0  0  0  0  0  0  0  0  0
    4.7070   -4.3010   38.8750 C   0  0  0  0  0  0  0  0  0  0  0  0
    3.7500   -4.9860   39.7150 C   0  0  0  0  0  0  0  0  0  0  0  0
    2.4410   -4.5480   39.6390 C   0  0  0  0  0  0  0  0  0  0  0  0
    1.4650   -5.0850   40.4800 C   0  0  0  0  0  0  0  0  0  0  0  0
    0.1920   -4.6270   40.3720 O   0  0  0  0  0  0  0  0  0  0  0  0
    1.7830   -6.0390   41.4070 C   0  0  0  0  0  0  0  0  0  0  0  0
    3.1050   -6.5350   41.4970 C   0  0  0  0  0  0  0  0  0  0  0  0
    3.4150   -7.5150   42.4710 C   0  0  0  0  0  0  0  0  0  0  0  0
    4.6690   -8.0570   42.5460 C   0  0  0  0  0  0  0  0  0  0  0  0
    5.6450   -7.6390   41.6350 C   0  0  0  0  0  0  0  0  0  0  0  0
    6.8730   -8.2110   41.7620 F   0  0  0  0  0  0  0  0  0  0  0  0
    5.4060   -6.7180   40.6350 C   0  0  0  0  0  0  0  0  0  0  0  0
    6.4350   -6.5720   39.6310 C   0  0  0  0  0  0  0  0  0  0  0  0
    7.2680   -6.5180   38.7700 C   0  0  0  0  0  0  0  0  0  0  0  0
    4.1150   -6.0650   40.6020 C   0  0  0  0  0  0  0  0  0  0  0  0
    5.5490   -3.3290   39.3110 C   0  0  0  0  0  0  0  0  0  0  0  0
    6.4570   -2.7050   38.4250 C   0  0  0  0  0  0  0  0  0  0  0  0
    7.3750   -1.9120   38.9580 N   0  0  0  0  0  0  0  0  0  0  0  0
    5.1050   -4.1450   35.4190 O   0  0  0  0  0  0  0  0  0  0  0  0
   12.5270    1.4280   39.4270 C   0  0  0  0  0  0  0  0  0  0  0  0
   12.3070    2.4050   38.2730 C   0  0  0  0  0  0  0  0  0  0  0  0
   13.1450    3.4870   38.3670 F   0  0  0  0  0  0  0  0  0  0  0  0
   10.8600    2.8450   38.3930 C   0  0  0  0  0  0  0  0  0  0  0  0
   10.1690    1.6890   39.1310 C   0  0  0  0  0  0  0  0  0  0  0  0
   11.2110    1.1210   40.0210 N   0  0  0  0  0  0  0  0  0  0  0  0
    9.7620    2.5510   41.3610 C   0  0  0  0  0  0  0  0  0  0  0  0
    9.0600    2.1830   40.0660 C   0  0  0  0  0  0  0  0  0  0  0  0
   11.0350    1.7090   41.3700 C   0  0  0  0  0  0  0  0  0  0  0  0
   10.5719    0.2324   37.6142 H   0  0  0  0  0  0  0  0  0  0  0  0
    8.8745    1.0562   37.5472 H   0  0  0  0  0  0  0  0  0  0  0  0
    7.5725   -4.3655   35.0048 H   0  0  0  0  0  0  0  0  0  0  0  0
    6.7891   -3.6138   33.4602 H   0  0  0  0  0  0  0  0  0  0  0  0
    8.7563   -4.8408   32.8894 H   0  0  0  0  0  0  0  0  0  0  0  0
    9.7949   -4.0936   35.3373 H   0  0  0  0  0  0  0  0  0  0  0  0
   10.9298   -4.4093   33.8620 H   0  0  0  0  0  0  0  0  0  0  0  0
   10.3303   -1.9351   35.3005 H   0  0  0  0  0  0  0  0  0  0  0  0
   11.5005   -2.2595   33.8549 H   0  0  0  0  0  0  0  0  0  0  0  0
    9.8578   -0.8605   32.7899 H   0  0  0  0  0  0  0  0  0  0  0  0
    7.5138   -0.9194   33.3226 H   0  0  0  0  0  0  0  0  0  0  0  0
    8.5649   -0.5113   34.8368 H   0  0  0  0  0  0  0  0  0  0  0  0
   10.0776   -3.0883   31.9446 H   0  0  0  0  0  0  0  0  0  0  0  0
    8.3892   -2.6338   31.8903 H   0  0  0  0  0  0  0  0  0  0  0  0
    4.1744   -6.6022   38.1465 H   0  0  0  0  0  0  0  0  0  0  0  0
    3.4215   -6.0233   36.6411 H   0  0  0  0  0  0  0  0  0  0  0  0
    5.1225   -6.5478   36.6411 H   0  0  0  0  0  0  0  0  0  0  0  0
    2.1778   -3.7775   38.9143 H   0  0  0  0  0  0  0  0  0  0  0  0
   -0.1759   -4.4946   41.2488 H   0  0  0  0  0  0  0  0  0  0  0  0
    0.9929   -6.3994   42.0657 H   0  0  0  0  0  0  0  0  0  0  0  0
    2.6668   -7.8622   43.1836 H   0  0  0  0  0  0  0  0  0  0  0  0
    4.8848   -8.8023   43.3115 H   0  0  0  0  0  0  0  0  0  0  0  0
    8.0251   -6.4689   37.9874 H   0  0  0  0  0  0  0  0  0  0  0  0
    5.4964   -3.0518   40.3639 H   0  0  0  0  0  0  0  0  0  0  0  0
   12.9013    0.4956   39.0043 H   0  0  0  0  0  0  0  0  0  0  0  0
   13.1003    1.9470   40.1952 H   0  0  0  0  0  0  0  0  0  0  0  0
   12.5854    2.0150   37.2940 H   0  0  0  0  0  0  0  0  0  0  0  0
   10.8336    3.7219   39.0399 H   0  0  0  0  0  0  0  0  0  0  0  0
   10.4459    2.8979   37.3861 H   0  0  0  0  0  0  0  0  0  0  0  0
   11.1438    0.1175   40.1136 H   0  0  0  0  0  0  0  0  0  0  0  0
   10.0553    3.5985   41.2921 H   0  0  0  0  0  0  0  0  0  0  0  0
    9.1333    2.2142   42.1853 H   0  0  0  0  0  0  0  0  0  0  0  0
    8.6511    3.1003   39.6424 H   0  0  0  0  0  0  0  0  0  0  0  0
    8.4023    1.3399   40.2775 H   0  0  0  0  0  0  0  0  0  0  0  0
   10.8726    0.8754   42.0533 H   0  0  0  0  0  0  0  0  0  0  0  0
   11.8752    2.3856   41.5258 H   0  0  0  0  0  0  0  0  0  0  0  0
  1  2  1  0
  1  3  1  0
  2 41  1  0
  3  4  2  0
  3 35  1  0
  4  5  1  0
  5  6  1  0
  5 14  2  0
  6  7  1  0
  6 12  1  0
  7  8  1  0
  8  9  1  0
  8 13  1  0
  9 10  1  0
 10 11  1  0
 11 12  1  0
 11 13  1  0
 14 15  1  0
 14 34  1  0
 15 16  1  0
 15 36  2  0
 16 17  1  0
 16 18  1  0
 18 19  1  0
 18 33  2  0
 19 20  2  0
 19 32  1  0
 20 21  1  0
 21 22  1  0
 21 23  2  0
 23 24  1  0
 24 25  1  0
 24 32  2  0
 25 26  2  0
 26 27  1  0
 27 28  1  0
 27 29  2  0
 29 30  1  0
 29 32  1  0
 30 31  3  0
 33 34  1  0
 34 35  2  0
 37 38  1  0
 37 42  1  0
 38 39  1  0
 38 40  1  0
 40 41  1  0
 41 42  1  0
 41 44  1  0
 42 45  1  0
 43 44  1  0
 43 45  1  0
  2 46  1  0
  2 47  1  0
  7 48  1  0
  7 49  1  0
  8 50  1  0
  9 51  1  0
  9 52  1  0
 10 53  1  0
 10 54  1  0
 11 55  1  0
 12 56  1  0
 12 57  1  0
 13 58  1  0
 13 59  1  0
 17 60  1  0
 17 61  1  0
 17 62  1  0
 20 63  1  0
 22 64  1  0
 23 65  1  0
 25 66  1  0
 26 67  1  0
 31 68  1  0
 33 69  1  0
 37 70  1  0
 37 71  1  0
 38 72  1  0
 40 73  1  0
 40 74  1  0
 42 75  1  0
 43 76  1  0
 43 77  1  0
 44 78  1  0
 44 79  1  0
 45 80  1  0
 45 81  1  0
M  CHG  2  13   1  42   1
M  END
>  <iTraX ID>  (1)
KRAS-0142-0026

>  <SMILES>  (1)
C#Cc1c(F)ccc2cc(O)cc(-c3cc4nc(OC[C@@]56CCCN5C[C@H](F)C6)nc(N5C[C@@H]6CC[C@H](C5)N6)c4c(=O)n3C)c12

>  <SiTX No>  (1)
SiTX-0044102

>  <Priority>  (1)
MEDIUM

>  <Ideated By>  (1)
Bandarage, Upul

>  <Quantity (mg)>  (1)
10 mg

>  <Purity (%)>  (1)
95

>  <Design Issue>  (1)
Chem Bio SAR

>  <Hypothesis Category>  (1)
General SAR Exploration

>  <Workflow>  (1)
SYNTHESIS COMPLETE

>  <Hypothesis>  (1)
Improvement of potency of 733 series including best selected potency pieces from Mirati scaffold

>  <Synth Feasibility>  (1)
Unknown

>  <Series>  (1)
Hit Finding

>  <_MOLCOUNT>  (1)
14

>  <Grid_es_energy>  (1)
this is for testing docking
$$$$
